packages/bdgd2opendss/bdgd2opendss-1.0.0.tar.gz/bdgd2opendss-1.0.0/tests/dss_models_output/sub__SE001/17_SE001_1/CargasMT_DO05_202312598_17_SE001_1_------1-----.dss
New "Load.MT_65146_M1" bus1="651461.1.2.3.4" phases=3 conn=Delta model=2 kv=23.100000000 kw = 15.0288115 pf=0.92 status=variable vmaxpu=1.5 vminpu=0.6 daily="MT6_DO"  
New "Load.MT_65146_M2" bus1="651461.1.2.3.4" phases=3 conn=Delta model=3 kv=23.100000000 kw = 15.0288115 pf=0.92 status=variable vmaxpu=1.5 vminpu=0.6 daily="MT6_DO" 
New "Load.MT_20050_M1" bus1="200501.1.2.3.4" phases=3 conn=Delta model=2 kv=23.100000000 kw = 47.321405 pf=0.92 status=variable vmaxpu=1.5 vminpu=0.6 daily="MT1_DO"  
New "Load.MT_20050_M2" bus1="200501.1.2.3.4" phases=3 conn=Delta model=3 kv=23.100000000 kw = 47.321405 pf=0.92 status=variable vmaxpu=1.5 vminpu=0.6 daily="MT1_DO" 
New "Load.MT_62502_M1" bus1="625021.1.2.3.4" phases=3 conn=Delta model=2 kv=23.100000000 kw = 2.344106 pf=0.92 status=variable vmaxpu=1.5 vminpu=0.6 daily="MT3_DO"  
New "Load.MT_62502_M2" bus1="625021.1.2.3.4" phases=3 conn=Delta model=3 kv=23.100000000 kw = 2.344106 pf=0.92 status=variable vmaxpu=1.5 vminpu=0.6 daily="MT3_DO" 
New "Load.MT_32932_M1" bus1="329321.1.2.3.4" phases=3 conn=Delta model=2 kv=23.100000000 kw = 174.4161975 pf=0.92 status=variable vmaxpu=1.5 vminpu=0.6 daily="MT1_DO"  
New "Load.MT_32932_M2" bus1="329321.1.2.3.4" phases=3 conn=Delta model=3 kv=23.100000000 kw = 174.4161975 pf=0.92 status=variable vmaxpu=1.5 vminpu=0.6 daily="MT1_DO" 
New "Load.MT_77971_1_M1" bus1="779901.1.2.3.4" phases=3 conn=Delta model=2 kv=23.100000000 kw = 3.7842155 pf=0.92 status=variable vmaxpu=1.5 vminpu=0.6 daily="MT3_DO"  
New "Load.MT_77971_1_M2" bus1="779901.1.2.3.4" phases=3 conn=Delta model=3 kv=23.100000000 kw = 3.7842155 pf=0.92 status=variable vmaxpu=1.5 vminpu=0.6 daily="MT3_DO" 
New "Load.MT_77971_2_M1" bus1="779901.1.2.3.4" phases=3 conn=Delta model=2 kv=23.100000000 kw = 0.4857105 pf=0.92 status=variable vmaxpu=1.5 vminpu=0.6 daily="MT2_DO"  
New "Load.MT_77971_2_M2" bus1="779901.1.2.3.4" phases=3 conn=Delta model=3 kv=23.100000000 kw = 0.4857105 pf=0.92 status=variable vmaxpu=1.5 vminpu=0.6 daily="MT2_DO" 
